data/rede/ESB01S4/CargasBT_Sintetico_20250139_ESB01S4_vmin05.dss
New "Load.BT_U52513810_M1" bus1="3872640938465802.1.4" phases=1 conn=Wye model=2 kv=0.219393102 kw = 0.320669 pf=0.92 status=variable vmaxpu=1.5 vminpu=0.5 daily="LS_BT_U52513810_M1"  
New "Load.BT_U52513810_M2" bus1="3872640938465802.1.4" phases=1 conn=Wye model=3 kv=0.219393102 kw = 0.320669 pf=0.92 status=variable vmaxpu=1.5 vminpu=0.5 daily="LS_BT_U52513810_M2" 
New "Load.BT_U50978508_M1" bus1="3860523338473303.1.2.3.4" phases=3 conn=Delta model=2 kv=0.380000000 kw = 1.064839 pf=0.92 status=variable vmaxpu=1.5 vminpu=0.5 daily="LS_BT_U50978508_M1"  
New "Load.BT_U50978508_M2" bus1="3860523338473303.1.2.3.4" phases=3 conn=Delta model=3 kv=0.380000000 kw = 1.064839 pf=0.92 status=variable vmaxpu=1.5 vminpu=0.5 daily="LS_BT_U50978508_M2" 
New "Load.BT_UC6495794_M1" bus1="3872170738466072.1.2.3.4" phases=3 conn=Delta model=2 kv=0.380000000 kw = 4.610228 pf=0.92 status=variable vmaxpu=1.5 vminpu=0.5 daily="LS_BT_UC6495794_M1"  
New "Load.BT_UC6495794_M2" bus1="3872170738466072.1.2.3.4" phases=3 conn=Delta model=3 kv=0.380000000 kw = 4.610228 pf=0.92 status=variable vmaxpu=1.5 vminpu=0.5 daily="LS_BT_UC6495794_M2" 
New "Load.BT_UI3140110_M1" bus1="3858901438460778.1.2.3.4" phases=3 conn=Delta model=2 kv=0.380000000 kw = 0.34751 pf=0.92 status=variable vmaxpu=1.5 vminpu=0.5 daily="LS_BT_UI3140110_M1"  
New "Load.BT_UI3140110_M2" bus1="3858901438460778.1.2.3.4" phases=3 conn=Delta model=3 kv=0.380000000 kw = 0.34751 pf=0.92 status=variable vmaxpu=1.5 vminpu=0.5 daily="LS_BT_UI3140110_M2" 
New "Load.BT_UC6416078_1_M1" bus1="3872445438465395.1.2.3.4" phases=3 conn=Delta model=2 kv=0.380000000 kw = 0.2796745 pf=0.92 status=variable vmaxpu=1.5 vminpu=0.5 daily="LS_BT_UC6416078_1_M1"  
New "Load.BT_UC6416078_1_M2" bus1="3872445438465395.1.2.3.4" phases=3 conn=Delta model=3 kv=0.380000000 kw = 0.2796745 pf=0.92 status=variable vmaxpu=1.5 vminpu=0.5 daily="LS_BT_UC6416078_1_M2" 
New "Load.BT_CL6487577_M1" bus1="3882610838452582.3.4" phases=1 conn=Wye model=2 kv=0.219393102 kw = 0.060579 pf=0.92 status=variable vmaxpu=1.5 vminpu=0.5 daily="LS_BT_CL6487577_M1"  
New "Load.BT_CL6487577_M2" bus1="3882610838452582.3.4" phases=1 conn=Wye model=3 kv=0.219393102 kw = 0.060579 pf=0.92 status=variable vmaxpu=1.5 vminpu=0.5 daily="LS_BT_CL6487577_M2" 
New "Load.BT_U50886001_M1" bus1="3872558738464460.3.4" phases=1 conn=Wye model=2 kv=0.219393102 kw = 0.02928 pf=0.92 status=variable vmaxpu=1.5 vminpu=0.5 daily="LS_BT_U50886001_M1"  
New "Load.BT_U50886001_M2" bus1="3872558738464460.3.4" phases=1 conn=Wye model=3 kv=0.219393102 kw = 0.02928 pf=0.92 status=variable vmaxpu=1.5 vminpu=0.5 daily="LS_BT_U50886001_M2" 
New "Load.BT_U52778023_M1" bus1="3873363838464459.1.4" phases=1 conn=Wye model=2 kv=0.219393102 kw = 3.644994 pf=0.92 status=variable vmaxpu=1.5 vminpu=0.5 daily="LS_BT_U52778023_M1"  
New "Load.BT_U52778023_M2" bus1="3873363838464459.1.4" phases=1 conn=Wye model=3 kv=0.219393102 kw = 3.644994 pf=0.92 status=variable vmaxpu=1.5 vminpu=0.5 daily="LS_BT_U52778023_M2" 
New "Load.BT_UC3655513_M1" bus1="3858727038471747.1.4" phases=1 conn=Wye model=2 kv=0.219393102 kw = 0.136327 pf=0.92 status=variable vmaxpu=1.5 vminpu=0.5 daily="LS_BT_UC3655513_M1"  
New "Load.BT_UC3655513_M2" bus1="3858727038471747.1.4" phases=1 conn=Wye model=3 kv=0.219393102 kw = 0.136327 pf=0.92 status=variable vmaxpu=1.5 vminpu=0.5 daily="LS_BT_UC3655513_M2" 
New "Load.BT_UC0943015_M1" bus1="3882812138456167.3.4" phases=1 conn=Wye model=2 kv=0.219393102 kw = 0.137454 pf=0.92 status=variable vmaxpu=1.5 vminpu=0.5 daily="LS_BT_UC0943015_M1"  
New "Load.BT_UC0943015_M2" bus1="3882812138456167.3.4" phases=1 conn=Wye model=3 kv=0.219393102 kw = 0.137454 pf=0.92 status=variable vmaxpu=1.5 vminpu=0.5 daily="LS_BT_UC0943015_M2" 
New "Load.BT_UC4671423_M1" bus1="3869408138466725.3.4" phases=1 conn=Wye model=2 kv=0.219393102 kw = 0.139707 pf=0.92 status=variable vmaxpu=1.5 vminpu=0.5 daily="LS_BT_UC4671423_M1"  
New "Load.BT_UC4671423_M2" bus1="3869408138466725.3.4" phases=1 conn=Wye model=3 kv=0.219393102 kw = 0.139707 pf=0.92 status=variable vmaxpu=1.5 vminpu=0.5 daily="LS_BT_UC4671423_M2" 
New "Load.BT_U52173281_M1" bus1="3857646138458381.1.2.3.4" phases=3 conn=Delta model=2 kv=0.380000000 kw = 0.38698 pf=0.92 status=variable vmaxpu=1.5 vminpu=0.5 daily="LS_BT_U52173281_M1"  
New "Load.BT_U52173281_M2" bus1="3857646138458381.1.2.3.4" phases=3 conn=Delta model=3 kv=0.380000000 kw = 0.38698 pf=0.92 status=variable vmaxpu=1.5 vminpu=0.5 daily="LS_BT_U52173281_M2" 
New "Load.BT_U10428805_M1" bus1="3871772438465676.1.2.3.4" phases=3 conn=Delta model=2 kv=0.380000000 kw = 2.1779555 pf=0.92 status=variable vmaxpu=1.5 vminpu=0.5 daily="LS_BT_U10428805_M1"  
New "Load.BT_U10428805_M2" bus1="3871772438465676.1.2.3.4" phases=3 conn=Delta model=3 kv=0.380000000 kw = 2.1779555 pf=0.92 status=variable vmaxpu=1.5 vminpu=0.5 daily="LS_BT_U10428805_M2" 
New "Load.BT_U10453697_1_M1" bus1="271134053.3.4" phases=1 conn=Wye model=2 kv=0.219393102 kw = 0.350942 pf=0.92 status=variable vmaxpu=1.5 vminpu=0.5 daily="LS_BT_U10453697_1_M1"  
New "Load.BT_U10453697_1_M2" bus1="271134053.3.4" phases=1 conn=Wye model=3 kv=0.219393102 kw = 0.350942 pf=0.92 status=variable vmaxpu=1.5 vminpu=0.5 daily="LS_BT_U10453697_1_M2" 
New "Load.BT_UC1343424_1_M1" bus1="3881460038455786.1.4" phases=1 conn=Wye model=2 kv=0.219393102 kw = 0.225338 pf=0.92 status=variable vmaxpu=1.5 vminpu=0.5 daily="LS_BT_UC1343424_1_M1"  
New "Load.BT_UC1343424_1_M2" bus1="3881460038455786.1.4" phases=1 conn=Wye model=3 kv=0.219393102 kw = 0.225338 pf=0.92 status=variable vmaxpu=1.5 vminpu=0.5 daily="LS_BT_UC1343424_1_M2" 
New "Load.BT_UC0988028_1_M1" bus1="3877073338462431.1.2.3.4" phases=3 conn=Delta model=2 kv=0.380000000 kw = 3.135338 pf=0.92 status=variable vmaxpu=1.5 vminpu=0.5 daily="LS_BT_UC0988028_1_M1"  
New "Load.BT_UC0988028_1_M2" bus1="3877073338462431.1.2.3.4" phases=3 conn=Delta model=3 kv=0.380000000 kw = 3.135338 pf=0.92 status=variable vmaxpu=1.5 vminpu=0.5 daily="LS_BT_UC0988028_1_M2" 
New "Load.BT_UC5581850_1_M1" bus1="3857859638466946.1.2.3.4" phases=3 conn=Delta model=2 kv=0.380000000 kw = 0.205845 pf=0.92 status=variable vmaxpu=1.5 vminpu=0.5 daily="LS_BT_UC5581850_1_M1"  
New "Load.BT_UC5581850_1_M2" bus1="3857859638466946.1.2.3.4" phases=3 conn=Delta model=3 kv=0.380000000 kw = 0.205845 pf=0.92 status=variable vmaxpu=1.5 vminpu=0.5 daily="LS_BT_UC5581850_1_M2" 
New "Load.BT_UC9236837_M1" bus1="3859076738460280.1.2.3.4" phases=3 conn=Delta model=2 kv=0.380000000 kw = 2.5483735 pf=0.92 status=variable vmaxpu=1.5 vminpu=0.5 daily="LS_BT_UC9236837_M1"  
New "Load.BT_UC9236837_M2" bus1="3859076738460280.1.2.3.4" phases=3 conn=Delta model=3 kv=0.380000000 kw = 2.5483735 pf=0.92 status=variable vmaxpu=1.5 vminpu=0.5 daily="LS_BT_UC9236837_M2" 
New "Load.BT_UC3123978_M1" bus1="3859494538460040.1.2.3.4" phases=3 conn=Delta model=2 kv=0.380000000 kw = 0.279724 pf=0.92 status=variable vmaxpu=1.5 vminpu=0.5 daily="LS_BT_UC3123978_M1"  
New "Load.BT_UC3123978_M2" bus1="3859494538460040.1.2.3.4" phases=3 conn=Delta model=3 kv=0.380000000 kw = 0.279724 pf=0.92 status=variable vmaxpu=1.5 vminpu=0.5 daily="LS_BT_UC3123978_M2" 
New "Load.BT_U51151404_M1" bus1="3883669938453608.1.2.3.4" phases=3 conn=Delta model=2 kv=0.380000000 kw = 1.3814595 pf=0.92 status=variable vmaxpu=1.5 vminpu=0.5 daily="LS_BT_U51151404_M1"  
New "Load.BT_U51151404_M2" bus1="3883669938453608.1.2.3.4" phases=3 conn=Delta model=3 kv=0.380000000 kw = 1.3814595 pf=0.92 status=variable vmaxpu=1.5 vminpu=0.5 daily="LS_BT_U51151404_M2" 
New "Load.BT_UC5266062_M1" bus1="3860555038460220.1.2.3.4" phases=3 conn=Delta model=2 kv=0.380000000 kw = 0.1185165 pf=0.92 status=variable vmaxpu=1.5 vminpu=0.5 daily="LS_BT_UC5266062_M1"  
New "Load.BT_UC5266062_M2" bus1="3860555038460220.1.2.3.4" phases=3 conn=Delta model=3 kv=0.380000000 kw = 0.1185165 pf=0.92 status=variable vmaxpu=1.5 vminpu=0.5 daily="LS_BT_UC5266062_M2" 
New "Load.BT_UC5945204_M1" bus1="209002662.1.2.3.4" phases=3 conn=Delta model=2 kv=0.380000000 kw = 0.5680285 pf=0.92 status=variable vmaxpu=1.5 vminpu=0.5 daily="LS_BT_UC5945204_M1"  
New "Load.BT_UC5945204_M2" bus1="209002662.1.2.3.4" phases=3 conn=Delta model=3 kv=0.380000000 kw = 0.5680285 pf=0.92 status=variable vmaxpu=1.5 vminpu=0.5 daily="LS_BT_UC5945204_M2" 
New "Load.BT_UC1048017_M1" bus1="3863283338458436.1.4" phases=1 conn=Wye model=2 kv=0.219393102 kw = 0.148146 pf=0.92 status=variable vmaxpu=1.5 vminpu=0.5 daily="LS_BT_UC1048017_M1"  
New "Load.BT_UC1048017_M2" bus1="3863283338458436.1.4" phases=1 conn=Wye model=3 kv=0.219393102 kw = 0.148146 pf=0.92 status=variable vmaxpu=1.5 vminpu=0.5 daily="LS_BT_UC1048017_M2" 
New "Load.BT_UC3597811_M1" bus1="3857094038463534.1.2.3.4" phases=3 conn=Delta model=2 kv=0.380000000 kw = 0.5263085 pf=0.92 status=variable vmaxpu=1.5 vminpu=0.5 daily="LS_BT_UC3597811_M1"  
New "Load.BT_UC3597811_M2" bus1="3857094038463534.1.2.3.4" phases=3 conn=Delta model=3 kv=0.380000000 kw = 0.5263085 pf=0.92 status=variable vmaxpu=1.5 vminpu=0.5 daily="LS_BT_UC3597811_M2" 
New "Load.BT_UC3867775_M1" bus1="3863917138458016.1.2.3.4" phases=3 conn=Delta model=2 kv=0.380000000 kw = 0.120076 pf=0.92 status=variable vmaxpu=1.5 vminpu=0.5 daily="LS_BT_UC3867775_M1"  
New "Load.BT_UC3867775_M2" bus1="3863917138458016.1.2.3.4" phases=3 conn=Delta model=3 kv=0.380000000 kw = 0.120076 pf=0.92 status=variable vmaxpu=1.5 vminpu=0.5 daily="LS_BT_UC3867775_M2" 
New "Load.BT_U10453697_2_M1" bus1="271134053.1.4" phases=1 conn=Wye model=2 kv=0.219393102 kw = 0.1988275 pf=0.92 status=variable vmaxpu=1.5 vminpu=0.5 daily="LS_BT_U10453697_2_M1"  
New "Load.BT_U10453697_2_M2" bus1="271134053.1.4" phases=1 conn=Wye model=3 kv=0.219393102 kw = 0.1988275 pf=0.92 status=variable vmaxpu=1.5 vminpu=0.5 daily="LS_BT_U10453697_2_M2" 
New "Load.BT_UC6515541_M1" bus1="3872044038465946.1.2.3.4" phases=3 conn=Delta model=2 kv=0.380000000 kw = 1.982243 pf=0.92 status=variable vmaxpu=1.5 vminpu=0.5 daily="LS_BT_UC6515541_M1"  
New "Load.BT_UC6515541_M2" bus1="3872044038465946.1.2.3.4" phases=3 conn=Delta model=3 kv=0.380000000 kw = 1.982243 pf=0.92 status=variable vmaxpu=1.5 vminpu=0.5 daily="LS_BT_UC6515541_M2" 
New "Load.BT_UC6416078_2_M1" bus1="3870013338466934.1.2.3.4" phases=3 conn=Delta model=2 kv=0.380000000 kw = 2.2221155 pf=0.92 status=variable vmaxpu=1.5 vminpu=0.5 daily="LS_BT_UC6416078_2_M1"  
New "Load.BT_UC6416078_2_M2" bus1="3870013338466934.1.2.3.4" phases=3 conn=Delta model=3 kv=0.380000000 kw = 2.2221155 pf=0.92 status=variable vmaxpu=1.5 vminpu=0.5 daily="LS_BT_UC6416078_2_M2" 
New "Load.BT_U10453697_3_M1" bus1="271134053.1.4" phases=1 conn=Wye model=2 kv=0.219393102 kw = 0.02928 pf=0.92 status=variable vmaxpu=1.5 vminpu=0.5 daily="LS_BT_U10453697_3_M1"  
New "Load.BT_U10453697_3_M2" bus1="271134053.1.4" phases=1 conn=Wye model=3 kv=0.219393102 kw = 0.02928 pf=0.92 status=variable vmaxpu=1.5 vminpu=0.5 daily="LS_BT_U10453697_3_M2" 
New "Load.BT_U57261876_M1" bus1="3882535338455056.1.2.3.4" phases=3 conn=Delta model=2 kv=0.380000000 kw = 0.6744545 pf=0.92 status=variable vmaxpu=1.5 vminpu=0.5 daily="LS_BT_U57261876_M1"  
New "Load.BT_U57261876_M2" bus1="3882535338455056.1.2.3.4" phases=3 conn=Delta model=3 kv=0.380000000 kw = 0.6744545 pf=0.92 status=variable vmaxpu=1.5 vminpu=0.5 daily="LS_BT_U57261876_M2" 
New "Load.BT_UC9999908_M1" bus1="3861301638473789.1.2.3.4" phases=3 conn=Delta model=2 kv=0.380000000 kw = 0.805708 pf=0.92 status=variable vmaxpu=1.5 vminpu=0.5 daily="LS_BT_UC9999908_M1"  
New "Load.BT_UC9999908_M2" bus1="3861301638473789.1.2.3.4" phases=3 conn=Delta model=3 kv=0.380000000 kw = 0.805708 pf=0.92 status=variable vmaxpu=1.5 vminpu=0.5 daily="LS_BT_UC9999908_M2" 
New "Load.BT_UC1621757_M1" bus1="3871596638465688.1.2.3.4" phases=3 conn=Delta model=2 kv=0.380000000 kw = 2.468611 pf=0.92 status=variable vmaxpu=1.5 vminpu=0.5 daily="LS_BT_UC1621757_M1"  
New "Load.BT_UC1621757_M2" bus1="3871596638465688.1.2.3.4" phases=3 conn=Delta model=3 kv=0.380000000 kw = 2.468611 pf=0.92 status=variable vmaxpu=1.5 vminpu=0.5 daily="LS_BT_UC1621757_M2" 
New "Load.BT_UC4608031_M1" bus1="3859892438460768.1.2.3.4" phases=3 conn=Delta model=2 kv=0.380000000 kw = 0.521694 pf=0.92 status=variable vmaxpu=1.5 vminpu=0.5 daily="LS_BT_UC4608031_M1"  
New "Load.BT_UC4608031_M2" bus1="3859892438460768.1.2.3.4" phases=3 conn=Delta model=3 kv=0.380000000 kw = 0.521694 pf=0.92 status=variable vmaxpu=1.5 vminpu=0.5 daily="LS_BT_UC4608031_M2" 
New "Load.BT_UC3635647_M1" bus1="3857866038458361.1.2.3.4" phases=3 conn=Delta model=2 kv=0.380000000 kw = 0.3595225 pf=0.92 status=variable vmaxpu=1.5 vminpu=0.5 daily="LS_BT_UC3635647_M1"  
New "Load.BT_UC3635647_M2" bus1="3857866038458361.1.2.3.4" phases=3 conn=Delta model=3 kv=0.380000000 kw = 0.3595225 pf=0.92 status=variable vmaxpu=1.5 vminpu=0.5 daily="LS_BT_UC3635647_M2" 
New "Load.BT_UC0469925_M1" bus1="3858064938468151.1.2.3.4" phases=3 conn=Delta model=2 kv=0.380000000 kw = 0.497569 pf=0.92 status=variable vmaxpu=1.5 vminpu=0.5 daily="LS_BT_UC0469925_M1"  
New "Load.BT_UC0469925_M2" bus1="3858064938468151.1.2.3.4" phases=3 conn=Delta model=3 kv=0.380000000 kw = 0.497569 pf=0.92 status=variable vmaxpu=1.5 vminpu=0.5 daily="LS_BT_UC0469925_M2" 
New "Load.BT_U52766703_M1" bus1="3868607838468353.1.4" phases=1 conn=Wye model=2 kv=0.219393102 kw = 0.0462085 pf=0.92 status=variable vmaxpu=1.5 vminpu=0.5 daily="LS_BT_U52766703_M1"  
New "Load.BT_U52766703_M2" bus1="3868607838468353.1.4" phases=1 conn=Wye model=3 kv=0.219393102 kw = 0.0462085 pf=0.92 status=variable vmaxpu=1.5 vminpu=0.5 daily="LS_BT_U52766703_M2" 
New "Load.BT_CL6995403_M1" bus1="3860916238465106.1.2.3.4" phases=3 conn=Delta model=2 kv=0.380000000 kw = 0.5482935 pf=0.92 status=variable vmaxpu=1.5 vminpu=0.5 daily="LS_BT_CL6995403_M1"  
New "Load.BT_CL6995403_M2" bus1="3860916238465106.1.2.3.4" phases=3 conn=Delta model=3 kv=0.380000000 kw = 0.5482935 pf=0.92 status=variable vmaxpu=1.5 vminpu=0.5 daily="LS_BT_CL6995403_M2" 
New "Load.BT_U10453697_4_M1" bus1="271134053.1.2.3.4" phases=3 conn=Delta model=2 kv=0.380000000 kw = 0.0 pf=0.92 status=variable vmaxpu=1.5 vminpu=0.5 daily="LS_BT_U10453697_4_M1"  
New "Load.BT_U10453697_4_M2" bus1="271134053.1.2.3.4" phases=3 conn=Delta model=3 kv=0.380000000 kw = 0.0 pf=0.92 status=variable vmaxpu=1.5 vminpu=0.5 daily="LS_BT_U10453697_4_M2" 
New "Load.BT_UC3249423_M1" bus1="3880418738457410.1.2.3.4" phases=3 conn=Delta model=2 kv=0.380000000 kw = 1.9626265 pf=0.92 status=variable vmaxpu=1.5 vminpu=0.5 daily="LS_BT_UC3249423_M1"  
New "Load.BT_UC3249423_M2" bus1="3880418738457410.1.2.3.4" phases=3 conn=Delta model=3 kv=0.380000000 kw = 1.9626265 pf=0.92 status=variable vmaxpu=1.5 vminpu=0.5 daily="LS_BT_UC3249423_M2" 
New "Load.BT_UC3169832_1_M1" bus1="32272140TR.3.4" phases=1 conn=Wye model=2 kv=0.219393102 kw = 0.3177215 pf=0.92 status=variable vmaxpu=1.5 vminpu=0.5 daily="LS_BT_UC3169832_1_M1"  
New "Load.BT_UC3169832_1_M2" bus1="32272140TR.3.4" phases=1 conn=Wye model=3 kv=0.219393102 kw = 0.3177215 pf=0.92 status=variable vmaxpu=1.5 vminpu=0.5 daily="LS_BT_UC3169832_1_M2" 
New "Load.BT_UC0824929_M1" bus1="3863108338459879.3.4" phases=1 conn=Wye model=2 kv=0.219393102 kw = 0.1239745 pf=0.92 status=variable vmaxpu=1.5 vminpu=0.5 daily="LS_BT_UC0824929_M1"  
New "Load.BT_UC0824929_M2" bus1="3863108338459879.3.4" phases=1 conn=Wye model=3 kv=0.219393102 kw = 0.1239745 pf=0.92 status=variable vmaxpu=1.5 vminpu=0.5 daily="LS_BT_UC0824929_M2" 
New "Load.BT_UC3585646_M1" bus1="3863458038458362.1.4" phases=1 conn=Wye model=2 kv=0.219393102 kw = 0.091592 pf=0.92 status=variable vmaxpu=1.5 vminpu=0.5 daily="LS_BT_UC3585646_M1"  
New "Load.BT_UC3585646_M2" bus1="3863458038458362.1.4" phases=1 conn=Wye model=3 kv=0.219393102 kw = 0.091592 pf=0.92 status=variable vmaxpu=1.5 vminpu=0.5 daily="LS_BT_UC3585646_M2" 
New "Load.BT_CL5752331_M1" bus1="3857743838462634.1.2.3.4" phases=3 conn=Delta model=2 kv=0.380000000 kw = 0.94557 pf=0.92 status=variable vmaxpu=1.5 vminpu=0.5 daily="LS_BT_CL5752331_M1"  
New "Load.BT_CL5752331_M2" bus1="3857743838462634.1.2.3.4" phases=3 conn=Delta model=3 kv=0.380000000 kw = 0.94557 pf=0.92 status=variable vmaxpu=1.5 vminpu=0.5 daily="LS_BT_CL5752331_M2" 
New "Load.BT_UC6976125_M1" bus1="3872445438465395.3.4" phases=1 conn=Wye model=2 kv=0.219393102 kw = 0.0858045 pf=0.92 status=variable vmaxpu=1.5 vminpu=0.5 daily="LS_BT_UC6976125_M1"  
New "Load.BT_UC6976125_M2" bus1="3872445438465395.3.4" phases=1 conn=Wye model=3 kv=0.219393102 kw = 0.0858045 pf=0.92 status=variable vmaxpu=1.5 vminpu=0.5 daily="LS_BT_UC6976125_M2" 
New "Load.BT_UC5272377_M1" bus1="3860500438465674.1.4" phases=1 conn=Wye model=2 kv=0.219393102 kw = 0.0118505 pf=0.92 status=variable vmaxpu=1.5 vminpu=0.5 daily="LS_BT_UC5272377_M1"  
New "Load.BT_UC5272377_M2" bus1="3860500438465674.1.4" phases=1 conn=Wye model=3 kv=0.219393102 kw = 0.0118505 pf=0.92 status=variable vmaxpu=1.5 vminpu=0.5 daily="LS_BT_UC5272377_M2" 
New "Load.BT_VC3898103_1_M1" bus1="3860841038465181.1.2.3.4" phases=3 conn=Delta model=2 kv=0.380000000 kw = 0.15406 pf=0.92 status=variable vmaxpu=1.5 vminpu=0.5 daily="LS_BT_VC3898103_1_M1"  
New "Load.BT_VC3898103_1_M2" bus1="3860841038465181.1.2.3.4" phases=3 conn=Delta model=3 kv=0.380000000 kw = 0.15406 pf=0.92 status=variable vmaxpu=1.5 vminpu=0.5 daily="LS_BT_VC3898103_1_M2" 
New "Load.BT_UC3393938_M1" bus1="3859059338461451.1.4" phases=1 conn=Wye model=2 kv=0.219393102 kw = 0.3217685 pf=0.92 status=variable vmaxpu=1.5 vminpu=0.5 daily="LS_BT_UC3393938_M1"  
New "Load.BT_UC3393938_M2" bus1="3859059338461451.1.4" phases=1 conn=Wye model=3 kv=0.219393102 kw = 0.3217685 pf=0.92 status=variable vmaxpu=1.5 vminpu=0.5 daily="LS_BT_UC3393938_M2" 
New "Load.BT_UC3946822_M1" bus1="1051627TR.1.2.3.4" phases=3 conn=Delta model=2 kv=0.380000000 kw = 0.701026 pf=0.92 status=variable vmaxpu=1.5 vminpu=0.5 daily="LS_BT_UC3946822_M1"  
New "Load.BT_UC3946822_M2" bus1="1051627TR.1.2.3.4" phases=3 conn=Delta model=3 kv=0.380000000 kw = 0.701026 pf=0.92 status=variable vmaxpu=1.5 vminpu=0.5 daily="LS_BT_UC3946822_M2" 
New "Load.BT_U54703263_M1" bus1="3860208338475960.1.4" phases=1 conn=Wye model=2 kv=0.219393102 kw = 0.086641 pf=0.92 status=variable vmaxpu=1.5 vminpu=0.5 daily="LS_BT_U54703263_M1"  
New "Load.BT_U54703263_M2" bus1="3860208338475960.1.4" phases=1 conn=Wye model=3 kv=0.219393102 kw = 0.086641 pf=0.92 status=variable vmaxpu=1.5 vminpu=0.5 daily="LS_BT_U54703263_M2" 
New "Load.BT_UC0469933_M1" bus1="3857795638465802.1.2.3.4" phases=3 conn=Delta model=2 kv=0.380000000 kw = 5.1010185 pf=0.92 status=variable vmaxpu=1.5 vminpu=0.5 daily="LS_BT_UC0469933_M1"  
New "Load.BT_UC0469933_M2" bus1="3857795638465802.1.2.3.4" phases=3 conn=Delta model=3 kv=0.380000000 kw = 5.1010185 pf=0.92 status=variable vmaxpu=1.5 vminpu=0.5 daily="LS_BT_UC0469933_M2" 
New "Load.BT_UC8246689_M1" bus1="3871772738466153.1.2.3.4" phases=3 conn=Delta model=2 kv=0.380000000 kw = 0.3449355 pf=0.92 status=variable vmaxpu=1.5 vminpu=0.5 daily="LS_BT_UC8246689_M1"  
New "Load.BT_UC8246689_M2" bus1="3871772738466153.1.2.3.4" phases=3 conn=Delta model=3 kv=0.380000000 kw = 0.3449355 pf=0.92 status=variable vmaxpu=1.5 vminpu=0.5 daily="LS_BT_UC8246689_M2" 
New "Load.BT_U59090866_M1" bus1="3876811438461514.1.2.3.4" phases=3 conn=Delta model=2 kv=0.380000000 kw = 0.0 pf=0.92 status=variable vmaxpu=1.5 vminpu=0.5 daily="LS_BT_U59090866_M1"  
New "Load.BT_U59090866_M2" bus1="3876811438461514.1.2.3.4" phases=3 conn=Delta model=3 kv=0.380000000 kw = 0.0 pf=0.92 status=variable vmaxpu=1.5 vminpu=0.5 daily="LS_BT_U59090866_M2" 
New "Load.BT_U52449988_M1" bus1="3883986438453401.1.4" phases=1 conn=Wye model=2 kv=0.219393102 kw = 0.3989925 pf=0.92 status=variable vmaxpu=1.5 vminpu=0.5 daily="LS_BT_U52449988_M1"  
New "Load.BT_U52449988_M2" bus1="3883986438453401.1.4" phases=1 conn=Wye model=3 kv=0.219393102 kw = 0.3989925 pf=0.92 status=variable vmaxpu=1.5 vminpu=0.5 daily="LS_BT_U52449988_M2" 
New "Load.BT_UC8444647_M1" bus1="3872162038466604.1.2.3.4" phases=3 conn=Delta model=2 kv=0.380000000 kw = 4.1774705 pf=0.92 status=variable vmaxpu=1.5 vminpu=0.5 daily="LS_BT_UC8444647_M1"  
New "Load.BT_UC8444647_M2" bus1="3872162038466604.1.2.3.4" phases=3 conn=Delta model=3 kv=0.380000000 kw = 4.1774705 pf=0.92 status=variable vmaxpu=1.5 vminpu=0.5 daily="LS_BT_UC8444647_M2" 
New "Load.BT_U54955863_M1" bus1="3859890438473835.1.4" phases=1 conn=Wye model=2 kv=0.219393102 kw = 0.464442 pf=0.92 status=variable vmaxpu=1.5 vminpu=0.5 daily="LS_BT_U54955863_M1"  
New "Load.BT_U54955863_M2" bus1="3859890438473835.1.4" phases=1 conn=Wye model=3 kv=0.219393102 kw = 0.464442 pf=0.92 status=variable vmaxpu=1.5 vminpu=0.5 daily="LS_BT_U54955863_M2" 
New "Load.BT_UC3997842_M1" bus1="3857924038458481.1.2.3.4" phases=3 conn=Delta model=2 kv=0.380000000 kw = 0.267711 pf=0.92 status=variable vmaxpu=1.5 vminpu=0.5 daily="LS_BT_UC3997842_M1"  
New "Load.BT_UC3997842_M2" bus1="3857924038458481.1.2.3.4" phases=3 conn=Delta model=3 kv=0.380000000 kw = 0.267711 pf=0.92 status=variable vmaxpu=1.5 vminpu=0.5 daily="LS_BT_UC3997842_M2" 
New "Load.BT_CL4491246_M1" bus1="3857980038462787.1.4" phases=1 conn=Wye model=2 kv=0.219393102 kw = 1.194078 pf=0.92 status=variable vmaxpu=1.5 vminpu=0.5 daily="LS_BT_CL4491246_M1"  
New "Load.BT_CL4491246_M2" bus1="3857980038462787.1.4" phases=1 conn=Wye model=3 kv=0.219393102 kw = 1.194078 pf=0.92 status=variable vmaxpu=1.5 vminpu=0.5 daily="LS_BT_CL4491246_M2" 
New "Load.BT_UC0943013_1_M1" bus1="3881501638455545.3.4" phases=1 conn=Wye model=2 kv=0.219393102 kw = 0.137454 pf=0.92 status=variable vmaxpu=1.5 vminpu=0.5 daily="LS_BT_UC0943013_1_M1"  
New "Load.BT_UC0943013_1_M2" bus1="3881501638455545.3.4" phases=1 conn=Wye model=3 kv=0.219393102 kw = 0.137454 pf=0.92 status=variable vmaxpu=1.5 vminpu=0.5 daily="LS_BT_UC0943013_1_M2" 
New "Load.BT_UC6515531_M1" bus1="3872134538466036.1.2.3.4" phases=3 conn=Delta model=2 kv=0.380000000 kw = 3.039392 pf=0.92 status=variable vmaxpu=1.5 vminpu=0.5 daily="LS_BT_UC6515531_M1"  
New "Load.BT_UC6515531_M2" bus1="3872134538466036.1.2.3.4" phases=3 conn=Delta model=3 kv=0.380000000 kw = 3.039392 pf=0.92 status=variable vmaxpu=1.5 vminpu=0.5 daily="LS_BT_UC6515531_M2" 
New "Load.BT_U54959055_M1" bus1="3882142138455312.3.4" phases=1 conn=Wye model=2 kv=0.219393102 kw = 0.2346945 pf=0.92 status=variable vmaxpu=1.5 vminpu=0.5 daily="LS_BT_U54959055_M1"  
New "Load.BT_U54959055_M2" bus1="3882142138455312.3.4" phases=1 conn=Wye model=3 kv=0.219393102 kw = 0.2346945 pf=0.92 status=variable vmaxpu=1.5 vminpu=0.5 daily="LS_BT_U54959055_M2" 
New "Load.BT_U10453697_5_M1" bus1="271134053.1.2.3.4" phases=3 conn=Delta model=2 kv=0.380000000 kw = 0.028055 pf=0.92 status=variable vmaxpu=1.5 vminpu=0.5 daily="LS_BT_U10453697_5_M1"  
New "Load.BT_U10453697_5_M2" bus1="271134053.1.2.3.4" phases=3 conn=Delta model=3 kv=0.380000000 kw = 0.028055 pf=0.92 status=variable vmaxpu=1.5 vminpu=0.5 daily="LS_BT_U10453697_5_M2" 
New "Load.BT_UC0988028_2_M1" bus1="3877073338462431.1.2.3.4" phases=3 conn=Delta model=2 kv=0.380000000 kw = 0.122458 pf=0.92 status=variable vmaxpu=1.5 vminpu=0.5 daily="LS_BT_UC0988028_2_M1"  
New "Load.BT_UC0988028_2_M2" bus1="3877073338462431.1.2.3.4" phases=3 conn=Delta model=3 kv=0.380000000 kw = 0.122458 pf=0.92 status=variable vmaxpu=1.5 vminpu=0.5 daily="LS_BT_UC0988028_2_M2" 
New "Load.BT_UC5472861_M1" bus1="3859863638474474.1.2.3.4" phases=3 conn=Delta model=2 kv=0.380000000 kw = 0.6864395 pf=0.92 status=variable vmaxpu=1.5 vminpu=0.5 daily="LS_BT_UC5472861_M1"  
New "Load.BT_UC5472861_M2" bus1="3859863638474474.1.2.3.4" phases=3 conn=Delta model=3 kv=0.380000000 kw = 0.6864395 pf=0.92 status=variable vmaxpu=1.5 vminpu=0.5 daily="LS_BT_UC5472861_M2" 
New "Load.BT_UC4625363_M1" bus1="3860097038460770.1.2.3.4" phases=3 conn=Delta model=2 kv=0.380000000 kw = 0.5826155 pf=0.92 status=variable vmaxpu=1.5 vminpu=0.5 daily="LS_BT_UC4625363_M1"  
New "Load.BT_UC4625363_M2" bus1="3860097038460770.1.2.3.4" phases=3 conn=Delta model=3 kv=0.380000000 kw = 0.5826155 pf=0.92 status=variable vmaxpu=1.5 vminpu=0.5 daily="LS_BT_UC4625363_M2" 
New "Load.BT_VC0774105_1_M1" bus1="3882929238455320.3.4" phases=1 conn=Wye model=2 kv=0.219393102 kw = 0.0565405 pf=0.92 status=variable vmaxpu=1.5 vminpu=0.5 daily="LS_BT_VC0774105_1_M1"  
New "Load.BT_VC0774105_1_M2" bus1="3882929238455320.3.4" phases=1 conn=Wye model=3 kv=0.219393102 kw = 0.0565405 pf=0.92 status=variable vmaxpu=1.5 vminpu=0.5 daily="LS_BT_VC0774105_1_M2" 
New "Load.BT_UC3864466_M1" bus1="3863388038458087.1.4" phases=1 conn=Wye model=2 kv=0.219393102 kw = 0.1306935 pf=0.92 status=variable vmaxpu=1.5 vminpu=0.5 daily="LS_BT_UC3864466_M1"  
New "Load.BT_UC3864466_M2" bus1="3863388038458087.1.4" phases=1 conn=Wye model=3 kv=0.219393102 kw = 0.1306935 pf=0.92 status=variable vmaxpu=1.5 vminpu=0.5 daily="LS_BT_UC3864466_M2" 
New "Load.BT_UC4709489_1_M1" bus1="3863274438458552.2.4" phases=1 conn=Wye model=2 kv=0.219393102 kw = 0.1270935 pf=0.92 status=variable vmaxpu=1.5 vminpu=0.5 daily="LS_BT_UC4709489_1_M1"  
New "Load.BT_UC4709489_1_M2" bus1="3863274438458552.2.4" phases=1 conn=Wye model=3 kv=0.219393102 kw = 0.1270935 pf=0.92 status=variable vmaxpu=1.5 vminpu=0.5 daily="LS_BT_UC4709489_1_M2" 
New "Load.BT_UC5888430_M1" bus1="208976962.1.2.3.4" phases=3 conn=Delta model=2 kv=0.380000000 kw = 0.5319905 pf=0.92 status=variable vmaxpu=1.5 vminpu=0.5 daily="LS_BT_UC5888430_M1"  
New "Load.BT_UC5888430_M2" bus1="208976962.1.2.3.4" phases=3 conn=Delta model=3 kv=0.380000000 kw = 0.5319905 pf=0.92 status=variable vmaxpu=1.5 vminpu=0.5 daily="LS_BT_UC5888430_M2" 
New "Load.BT_UC1755804_M1" bus1="3862334938459598.3.4" phases=1 conn=Wye model=2 kv=0.219393102 kw = 0.2292365 pf=0.92 status=variable vmaxpu=1.5 vminpu=0.5 daily="LS_BT_UC1755804_M1"  
New "Load.BT_UC1755804_M2" bus1="3862334938459598.3.4" phases=1 conn=Wye model=3 kv=0.219393102 kw = 0.2292365 pf=0.92 status=variable vmaxpu=1.5 vminpu=0.5 daily="LS_BT_UC1755804_M2" 
New "Load.BT_CL6612165_M1" bus1="1051627TR.1.2.3.4" phases=3 conn=Delta model=2 kv=0.380000000 kw = 1.0661975 pf=0.92 status=variable vmaxpu=1.5 vminpu=0.5 daily="LS_BT_CL6612165_M1"  
New "Load.BT_CL6612165_M2" bus1="1051627TR.1.2.3.4" phases=3 conn=Delta model=3 kv=0.380000000 kw = 1.0661975 pf=0.92 status=variable vmaxpu=1.5 vminpu=0.5 daily="LS_BT_CL6612165_M2" 
New "Load.BT_UC0774110_M1" bus1="3857423338467596.1.2.3.4" phases=3 conn=Delta model=2 kv=0.380000000 kw = 0.3440775 pf=0.92 status=variable vmaxpu=1.5 vminpu=0.5 daily="LS_BT_UC0774110_M1"  
New "Load.BT_UC0774110_M2" bus1="3857423338467596.1.2.3.4" phases=3 conn=Delta model=3 kv=0.380000000 kw = 0.3440775 pf=0.92 status=variable vmaxpu=1.5 vminpu=0.5 daily="LS_BT_UC0774110_M2" 
New "Load.BT_U56260730_1_M1" bus1="2296520TR.3.4" phases=1 conn=Wye model=2 kv=0.219393102 kw = 0.3443425 pf=0.92 status=variable vmaxpu=1.5 vminpu=0.5 daily="LS_BT_U56260730_1_M1"  
New "Load.BT_U56260730_1_M2" bus1="2296520TR.3.4" phases=1 conn=Wye model=3 kv=0.219393102 kw = 0.3443425 pf=0.92 status=variable vmaxpu=1.5 vminpu=0.5 daily="LS_BT_U56260730_1_M2" 
New "Load.BT_U51037244_M1" bus1="3881778838457021.2.4" phases=1 conn=Wye model=2 kv=0.219393102 kw = 0.116047 pf=0.92 status=variable vmaxpu=1.5 vminpu=0.5 daily="LS_BT_U51037244_M1"  
New "Load.BT_U51037244_M2" bus1="3881778838457021.2.4" phases=1 conn=Wye model=3 kv=0.219393102 kw = 0.116047 pf=0.92 status=variable vmaxpu=1.5 vminpu=0.5 daily="LS_BT_U51037244_M2" 
New "Load.BT_UC4690501_M1" bus1="3857822038467962.1.2.3.4" phases=3 conn=Delta model=2 kv=0.380000000 kw = 0.2943105 pf=0.92 status=variable vmaxpu=1.5 vminpu=0.5 daily="LS_BT_UC4690501_M1"  
New "Load.BT_UC4690501_M2" bus1="3857822038467962.1.2.3.4" phases=3 conn=Delta model=3 kv=0.380000000 kw = 0.2943105 pf=0.92 status=variable vmaxpu=1.5 vminpu=0.5 daily="LS_BT_UC4690501_M2" 
New "Load.BT_UC0869212_1_M1" bus1="3882341738456221.3.4" phases=1 conn=Wye model=2 kv=0.219393102 kw = 0.211938 pf=0.92 status=variable vmaxpu=1.5 vminpu=0.5 daily="LS_BT_UC0869212_1_M1"  
New "Load.BT_UC0869212_1_M2" bus1="3882341738456221.3.4" phases=1 conn=Wye model=3 kv=0.219393102 kw = 0.211938 pf=0.92 status=variable vmaxpu=1.5 vminpu=0.5 daily="LS_BT_UC0869212_1_M2" 
New "Load.BT_CL4343443_M1" bus1="3857241938462830.1.2.3.4" phases=3 conn=Delta model=2 kv=0.380000000 kw = 0.7782505 pf=0.92 status=variable vmaxpu=1.5 vminpu=0.5 daily="LS_BT_CL4343443_M1"  
New "Load.BT_CL4343443_M2" bus1="3857241938462830.1.2.3.4" phases=3 conn=Delta model=3 kv=0.380000000 kw = 0.7782505 pf=0.92 status=variable vmaxpu=1.5 vminpu=0.5 daily="LS_BT_CL4343443_M2" 
New "Load.BT_U61233341_M1" bus1="3861279038466529.1.2.3.4" phases=3 conn=Delta model=2 kv=0.380000000 kw = 0.136284 pf=0.92 status=variable vmaxpu=1.5 vminpu=0.5 daily="LS_BT_U61233341_M1"  
New "Load.BT_U61233341_M2" bus1="3861279038466529.1.2.3.4" phases=3 conn=Delta model=3 kv=0.380000000 kw = 0.136284 pf=0.92 status=variable vmaxpu=1.5 vminpu=0.5 daily="LS_BT_U61233341_M2" 
New "Load.BT_U51007964_M1" bus1="3861764838462377.1.2.3.4" phases=3 conn=Delta model=2 kv=0.380000000 kw = 0.0 pf=0.92 status=variable vmaxpu=1.5 vminpu=0.5 daily="LS_BT_U51007964_M1"  
New "Load.BT_U51007964_M2" bus1="3861764838462377.1.2.3.4" phases=3 conn=Delta model=3 kv=0.380000000 kw = 0.0 pf=0.92 status=variable vmaxpu=1.5 vminpu=0.5 daily="LS_BT_U51007964_M2" 
New "Load.BT_UC3646363_M1" bus1="3881526938456359.1.4" phases=1 conn=Wye model=2 kv=0.219393102 kw = 0.096543 pf=0.92 status=variable vmaxpu=1.5 vminpu=0.5 daily="LS_BT_UC3646363_M1"  
New "Load.BT_UC3646363_M2" bus1="3881526938456359.1.4" phases=1 conn=Wye model=3 kv=0.219393102 kw = 0.096543 pf=0.92 status=variable vmaxpu=1.5 vminpu=0.5 daily="LS_BT_UC3646363_M2" 
New "Load.BT_UC0988028_3_M1" bus1="3877073338462431.1.2.3.4" phases=3 conn=Delta model=2 kv=0.380000000 kw = 0.3615595 pf=0.92 status=variable vmaxpu=1.5 vminpu=0.5 daily="LS_BT_UC0988028_3_M1"  
New "Load.BT_UC0988028_3_M2" bus1="3877073338462431.1.2.3.4" phases=3 conn=Delta model=3 kv=0.380000000 kw = 0.3615595 pf=0.92 status=variable vmaxpu=1.5 vminpu=0.5 daily="LS_BT_UC0988028_3_M2" 
New "Load.BT_UC4310721_M1" bus1="3872008138465462.1.4" phases=1 conn=Wye model=2 kv=0.219393102 kw = 0.184774 pf=0.92 status=variable vmaxpu=1.5 vminpu=0.5 daily="LS_BT_UC4310721_M1"  
New "Load.BT_UC4310721_M2" bus1="3872008138465462.1.4" phases=1 conn=Wye model=3 kv=0.219393102 kw = 0.184774 pf=0.92 status=variable vmaxpu=1.5 vminpu=0.5 daily="LS_BT_UC4310721_M2" 
New "Load.BT_UC5046563_M1" bus1="3877105138461289.1.4" phases=1 conn=Wye model=2 kv=0.219393102 kw = 0.1964885 pf=0.92 status=variable vmaxpu=1.5 vminpu=0.5 daily="LS_BT_UC5046563_M1"  
New "Load.BT_UC5046563_M2" bus1="3877105138461289.1.4" phases=1 conn=Wye model=3 kv=0.219393102 kw = 0.1964885 pf=0.92 status=variable vmaxpu=1.5 vminpu=0.5 daily="LS_BT_UC5046563_M2" 

New "Load.BT_UC6319479_M1" bus1="3863363338458008.3.4" phases=1 conn=Wye model=2 kv=0.219393102 kw = 0.085816 pf=0.92 status=variable vmaxpu=1.5 vminpu=0.5 daily="LS_BT_UC6319479_M1"  
New "Load.BT_UC6319479_M2" bus1="3863363338458008.3.4" phases=1 conn=Wye model=3 kv=0.219393102 kw = 0.085816 pf=0.92 status=variable vmaxpu=1.5 vminpu=0.5 daily="LS_BT_UC6319479_M2" 
New "Load.BT_VC5291442_1_M1" bus1="3882137538457147.1.2.3.4" phases=3 conn=Delta model=2 kv=0.380000000 kw = 0.4101475 pf=0.92 status=variable vmaxpu=1.5 vminpu=0.5 daily="LS_BT_VC5291442_1_M1"  
New "Load.BT_VC5291442_1_M2" bus1="3882137538457147.1.2.3.4" phases=3 conn=Delta model=3 kv=0.380000000 kw = 0.4101475 pf=0.92 status=variable vmaxpu=1.5 vminpu=0.5 daily="LS_BT_VC5291442_1_M2" 
New "Load.BT_UC4481737_1_M1" bus1="3877313138462092.1.2.3.4" phases=3 conn=Delta model=2 kv=0.380000000 kw = 0.367246 pf=0.92 status=variable vmaxpu=1.5 vminpu=0.5 daily="LS_BT_UC4481737_1_M1"  
New "Load.BT_UC4481737_1_M2" bus1="3877313138462092.1.2.3.4" phases=3 conn=Delta model=3 kv=0.380000000 kw = 0.367246 pf=0.92 status=variable vmaxpu=1.5 vminpu=0.5 daily="LS_BT_UC4481737_1_M2" 
New "Load.BT_UC4055732_M1" bus1="3863488038460564.1.4" phases=1 conn=Wye model=2 kv=0.219393102 kw = 0.072695 pf=0.92 status=variable vmaxpu=1.5 vminpu=0.5 daily="LS_BT_UC4055732_M1"  
New "Load.BT_UC4055732_M2" bus1="3863488038460564.1.4" phases=1 conn=Wye model=3 kv=0.219393102 kw = 0.072695 pf=0.92 status=variable vmaxpu=1.5 vminpu=0.5 daily="LS_BT_UC4055732_M2" 
New "Load.BT_U52777763_M1" bus1="3857244438466856.1.4" phases=1 conn=Wye model=2 kv=0.219393102 kw = 0.0 pf=0.92 status=variable vmaxpu=1.5 vminpu=0.5 daily="LS_BT_U52777763_M1"  
New "Load.BT_U52777763_M2" bus1="3857244438466856.1.4" phases=1 conn=Wye model=3 kv=0.219393102 kw = 0.0 pf=0.92 status=variable vmaxpu=1.5 vminpu=0.5 daily="LS_BT_U52777763_M2" 
New "Load.BT_UC7318544_M1" bus1="154652959TR.1.2.3.4" phases=3 conn=Delta model=2 kv=0.380000000 kw = 0.9687375 pf=0.92 status=variable vmaxpu=1.5 vminpu=0.5 daily="LS_BT_UC7318544_M1"  
New "Load.BT_UC7318544_M2" bus1="154652959TR.1.2.3.4" phases=3 conn=Delta model=3 kv=0.380000000 kw = 0.9687375 pf=0.92 status=variable vmaxpu=1.5 vminpu=0.5 daily="LS_BT_UC7318544_M2" 
New "Load.BT_U56260730_2_M1" bus1="2296520TR.3.4" phases=1 conn=Wye model=2 kv=0.219393102 kw = 0.0 pf=0.92 status=variable vmaxpu=1.5 vminpu=0.5 daily="LS_BT_U56260730_2_M1"  
New "Load.BT_U56260730_2_M2" bus1="2296520TR.3.4" phases=1 conn=Wye model=3 kv=0.219393102 kw = 0.0 pf=0.92 status=variable vmaxpu=1.5 vminpu=0.5 daily="LS_BT_U56260730_2_M2" 
New "Load.BT_UC5818777_M1" bus1="3857109438467955.1.4" phases=1 conn=Wye model=2 kv=0.219393102 kw = 0.0 pf=0.92 status=variable vmaxpu=1.5 vminpu=0.5 daily="LS_BT_UC5818777_M1"  
New "Load.BT_UC5818777_M2" bus1="3857109438467955.1.4" phases=1 conn=Wye model=3 kv=0.219393102 kw = 0.0 pf=0.92 status=variable vmaxpu=1.5 vminpu=0.5 daily="LS_BT_UC5818777_M2" 
New "Load.BT_UC6416078_3_M1" bus1="3872445438465395.1.2.3.4" phases=3 conn=Delta model=2 kv=0.380000000 kw = 0.08004 pf=0.92 status=variable vmaxpu=1.5 vminpu=0.5 daily="LS_BT_UC6416078_3_M1"  
New "Load.BT_UC6416078_3_M2" bus1="3872445438465395.1.2.3.4" phases=3 conn=Delta model=3 kv=0.380000000 kw = 0.08004 pf=0.92 status=variable vmaxpu=1.5 vminpu=0.5 daily="LS_BT_UC6416078_3_M2" 
New "Load.BT_U43329773_M1" bus1="3864114738458935.2.4" phases=1 conn=Wye model=2 kv=0.219393102 kw = 0.02928 pf=0.92 status=variable vmaxpu=1.5 vminpu=0.5 daily="LS_BT_U43329773_M1"  
New "Load.BT_U43329773_M2" bus1="3864114738458935.2.4" phases=1 conn=Wye model=3 kv=0.219393102 kw = 0.02928 pf=0.92 status=variable vmaxpu=1.5 vminpu=0.5 daily="LS_BT_U43329773_M2" 
New "Load.BT_UC9724490_M1" bus1="3862692438469987.3.4" phases=1 conn=Wye model=2 kv=0.219393102 kw = 0.13723 pf=0.92 status=variable vmaxpu=1.5 vminpu=0.5 daily="LS_BT_UC9724490_M1"  
New "Load.BT_UC9724490_M2" bus1="3862692438469987.3.4" phases=1 conn=Wye model=3 kv=0.219393102 kw = 0.13723 pf=0.92 status=variable vmaxpu=1.5 vminpu=0.5 daily="LS_BT_UC9724490_M2" 
New "Load.BT_UC5115435_1_M1" bus1="3872583838465063.3.4" phases=1 conn=Wye model=2 kv=0.219393102 kw = 0.0569355 pf=0.92 status=variable vmaxpu=1.5 vminpu=0.5 daily="LS_BT_UC5115435_1_M1"  
New "Load.BT_UC5115435_1_M2" bus1="3872583838465063.3.4" phases=1 conn=Wye model=3 kv=0.219393102 kw = 0.0569355 pf=0.92 status=variable vmaxpu=1.5 vminpu=0.5 daily="LS_BT_UC5115435_1_M2" 
New "Load.BT_U10428788_M1" bus1="3871926338465829.1.2.3.4" phases=3 conn=Delta model=2 kv=0.380000000 kw = 2.225976 pf=0.92 status=variable vmaxpu=1.5 vminpu=0.5 daily="LS_BT_U10428788_M1"  
New "Load.BT_U10428788_M2" bus1="3871926338465829.1.2.3.4" phases=3 conn=Delta model=3 kv=0.380000000 kw = 2.225976 pf=0.92 status=variable vmaxpu=1.5 vminpu=0.5 daily="LS_BT_U10428788_M2" 
New "Load.BT_UC4541182_M1" bus1="3862258038458184.1.4" phases=1 conn=Wye model=2 kv=0.219393102 kw = 0.0572785 pf=0.92 status=variable vmaxpu=1.5 vminpu=0.5 daily="LS_BT_UC4541182_M1"  
New "Load.BT_UC4541182_M2" bus1="3862258038458184.1.4" phases=1 conn=Wye model=3 kv=0.219393102 kw = 0.0572785 pf=0.92 status=variable vmaxpu=1.5 vminpu=0.5 daily="LS_BT_UC4541182_M2" 
New "Load.BT_UC5518906_1_M1" bus1="3860552038463720.1.2.3.4" phases=3 conn=Delta model=2 kv=0.380000000 kw = 0.2934525 pf=0.92 status=variable vmaxpu=1.5 vminpu=0.5 daily="LS_BT_UC5518906_1_M1"  
New "Load.BT_UC5518906_1_M2" bus1="3860552038463720.1.2.3.4" phases=3 conn=Delta model=3 kv=0.380000000 kw = 0.2934525 pf=0.92 status=variable vmaxpu=1.5 vminpu=0.5 daily="LS_BT_UC5518906_1_M2" 
New "Load.BT_UC4636099_M1" bus1="3858218938460615.1.4" phases=1 conn=Wye model=2 kv=0.219393102 kw = 0.505391 pf=0.92 status=variable vmaxpu=1.5 vminpu=0.5 daily="LS_BT_UC4636099_M1"  
New "Load.BT_UC4636099_M2" bus1="3858218938460615.1.4" phases=1 conn=Wye model=3 kv=0.219393102 kw = 0.505391 pf=0.92 status=variable vmaxpu=1.5 vminpu=0.5 daily="LS_BT_UC4636099_M2" 
New "Load.BT_U10428793_M1" bus1="3871881038465784.1.2.3.4" phases=3 conn=Delta model=2 kv=0.380000000 kw = 2.12143 pf=0.92 status=variable vmaxpu=1.5 vminpu=0.5 daily="LS_BT_U10428793_M1"  
New "Load.BT_U10428793_M2" bus1="3871881038465784.1.2.3.4" phases=3 conn=Delta model=3 kv=0.380000000 kw = 2.12143 pf=0.92 status=variable vmaxpu=1.5 vminpu=0.5 daily="LS_BT_U10428793_M2" 
New "Load.BT_U10428781_M1" bus1="3871989638465892.1.2.3.4" phases=3 conn=Delta model=2 kv=0.380000000 kw = 0.9556155 pf=0.92 status=variable vmaxpu=1.5 vminpu=0.5 daily="LS_BT_U10428781_M1"  
New "Load.BT_U10428781_M2" bus1="3871989638465892.1.2.3.4" phases=3 conn=Delta model=3 kv=0.380000000 kw = 0.9556155 pf=0.92 status=variable vmaxpu=1.5 vminpu=0.5 daily="LS_BT_U10428781_M2" 
New "Load.BT_UC6515530_M1" bus1="3872143538466045.1.2.3.4" phases=3 conn=Delta model=2 kv=0.380000000 kw = 1.581824 pf=0.92 status=variable vmaxpu=1.5 vminpu=0.5 daily="LS_BT_UC6515530_M1"  
New "Load.BT_UC6515530_M2" bus1="3872143538466045.1.2.3.4" phases=3 conn=Delta model=3 kv=0.380000000 kw = 1.581824 pf=0.92 status=variable vmaxpu=1.5 vminpu=0.5 daily="LS_BT_UC6515530_M2" 
New "Load.BT_CL6703912_M1" bus1="3858950438475285.1.2.3.4" phases=3 conn=Delta model=2 kv=0.380000000 kw = 0.7104645 pf=0.92 status=variable vmaxpu=1.5 vminpu=0.5 daily="LS_BT_CL6703912_M1"  
New "Load.BT_CL6703912_M2" bus1="3858950438475285.1.2.3.4" phases=3 conn=Delta model=3 kv=0.380000000 kw = 0.7104645 pf=0.92 status=variable vmaxpu=1.5 vminpu=0.5 daily="LS_BT_CL6703912_M2" 
New "Load.BT_U10453697_6_M1" bus1="271134053.1.4" phases=1 conn=Wye model=2 kv=0.219393102 kw = 0.2248085 pf=0.92 status=variable vmaxpu=1.5 vminpu=0.5 daily="LS_BT_U10453697_6_M1"  
New "Load.BT_U10453697_6_M2" bus1="271134053.1.4" phases=1 conn=Wye model=3 kv=0.219393102 kw = 0.2248085 pf=0.92 status=variable vmaxpu=1.5 vminpu=0.5 daily="LS_BT_U10453697_6_M2" 
New "Load.BT_UC0988028_4_M1" bus1="3877073338462431.1.2.3.4" phases=3 conn=Delta model=2 kv=0.380000000 kw = 0.284419 pf=0.92 status=variable vmaxpu=1.5 vminpu=0.5 daily="LS_BT_UC0988028_4_M1"  
New "Load.BT_UC0988028_4_M2" bus1="3877073338462431.1.2.3.4" phases=3 conn=Delta model=3 kv=0.380000000 kw = 0.284419 pf=0.92 status=variable vmaxpu=1.5 vminpu=0.5 daily="LS_BT_UC0988028_4_M2" 
New "Load.BT_CL4102185_M1" bus1="154652959TR.1.2.3.4" phases=3 conn=Delta model=2 kv=0.380000000 kw = 0.8305915 pf=0.92 status=variable vmaxpu=1.5 vminpu=0.5 daily="LS_BT_CL4102185_M1"  
New "Load.BT_CL4102185_M2" bus1="154652959TR.1.2.3.4" phases=3 conn=Delta model=3 kv=0.380000000 kw = 0.8305915 pf=0.92 status=variable vmaxpu=1.5 vminpu=0.5 daily="LS_BT_CL4102185_M2" 
New "Load.BT_U53502825_M1" bus1="3883660338452771.3.4" phases=1 conn=Wye model=2 kv=0.219393102 kw = 1.6055075 pf=0.92 status=variable vmaxpu=1.5 vminpu=0.5 daily="LS_BT_U53502825_M1"  
New "Load.BT_U53502825_M2" bus1="3883660338452771.3.4" phases=1 conn=Wye model=3 kv=0.219393102 kw = 1.6055075 pf=0.92 status=variable vmaxpu=1.5 vminpu=0.5 daily="LS_BT_U53502825_M2" 
New "Load.BT_UC0869212_2_M1" bus1="3882341738456221.3.4" phases=1 conn=Wye model=2 kv=0.219393102 kw = 0.191436 pf=0.92 status=variable vmaxpu=1.5 vminpu=0.5 daily="LS_BT_UC0869212_2_M1"  
New "Load.BT_UC0869212_2_M2" bus1="3882341738456221.3.4" phases=1 conn=Wye model=3 kv=0.219393102 kw = 0.191436 pf=0.92 status=variable vmaxpu=1.5 vminpu=0.5 daily="LS_BT_UC0869212_2_M2" 
New "Load.BT_UC3753117_M1" bus1="3862871838467600.1.4" phases=1 conn=Wye model=2 kv=0.219393102 kw = 0.067647 pf=0.92 status=variable vmaxpu=1.5 vminpu=0.5 daily="LS_BT_UC3753117_M1"  
New "Load.BT_UC3753117_M2" bus1="3862871838467600.1.4" phases=1 conn=Wye model=3 kv=0.219393102 kw = 0.067647 pf=0.92 status=variable vmaxpu=1.5 vminpu=0.5 daily="LS_BT_UC3753117_M2" 
New "Load.BT_U57267822_M1" bus1="3862214938458819.1.2.3.4" phases=3 conn=Delta model=2 kv=0.380000000 kw = 0.1937875 pf=0.92 status=variable vmaxpu=1.5 vminpu=0.5 daily="LS_BT_U57267822_M1"  
New "Load.BT_U57267822_M2" bus1="3862214938458819.1.2.3.4" phases=3 conn=Delta model=3 kv=0.380000000 kw = 0.1937875 pf=0.92 status=variable vmaxpu=1.5 vminpu=0.5 daily="LS_BT_U57267822_M2" 
New "Load.BT_UI3059438_M1" bus1="3859772138464332.1.2.3.4" phases=3 conn=Delta model=2 kv=0.380000000 kw = 1.7972835 pf=0.92 status=variable vmaxpu=1.5 vminpu=0.5 daily="LS_BT_UI3059438_M1"  
New "Load.BT_UI3059438_M2" bus1="3859772138464332.1.2.3.4" phases=3 conn=Delta model=3 kv=0.380000000 kw = 1.7972835 pf=0.92 status=variable vmaxpu=1.5 vminpu=0.5 daily="LS_BT_UI3059438_M2" 
New "Load.BT_UC0266249_1_M1" bus1="3862727938458550.1.2.3.4" phases=3 conn=Delta model=2 kv=0.380000000 kw = 0.0302895 pf=0.92 status=variable vmaxpu=1.5 vminpu=0.5 daily="LS_BT_UC0266249_1_M1"  
New "Load.BT_UC0266249_1_M2" bus1="3862727938458550.1.2.3.4" phases=3 conn=Delta model=3 kv=0.380000000 kw = 0.0302895 pf=0.92 status=variable vmaxpu=1.5 vminpu=0.5 daily="LS_BT_UC0266249_1_M2" 
New "Load.BT_UC5944448_M1" bus1="3864267438457169.1.4" phases=1 conn=Wye model=2 kv=0.219393102 kw = 0.0779715 pf=0.92 status=variable vmaxpu=1.5 vminpu=0.5 daily="LS_BT_UC5944448_M1"  
New "Load.BT_UC5944448_M2" bus1="3864267438457169.1.4" phases=1 conn=Wye model=3 kv=0.219393102 kw = 0.0779715 pf=0.92 status=variable vmaxpu=1.5 vminpu=0.5 daily="LS_BT_UC5944448_M2" 
New "Load.BT_UC6723391_M1" bus1="3873191638463928.1.2.3.4" phases=3 conn=Delta model=2 kv=0.380000000 kw = 0.337213 pf=0.92 status=variable vmaxpu=1.5 vminpu=0.5 daily="LS_BT_UC6723391_M1"  
New "Load.BT_UC6723391_M2" bus1="3873191638463928.1.2.3.4" phases=3 conn=Delta model=3 kv=0.380000000 kw = 0.337213 pf=0.92 status=variable vmaxpu=1.5 vminpu=0.5 daily="LS_BT_UC6723391_M2" 
New "Load.BT_UC6446204_M1" bus1="3858695438474436.1.2.3.4" phases=3 conn=Delta model=2 kv=0.380000000 kw = 0.440179 pf=0.92 status=variable vmaxpu=1.5 vminpu=0.5 daily="LS_BT_UC6446204_M1"  
New "Load.BT_UC6446204_M2" bus1="3858695438474436.1.2.3.4" phases=3 conn=Delta model=3 kv=0.380000000 kw = 0.440179 pf=0.92 status=variable vmaxpu=1.5 vminpu=0.5 daily="LS_BT_UC6446204_M2" 
New "Load.BT_U52543404_M1" bus1="3861012038459225.1.4" phases=1 conn=Wye model=2 kv=0.219393102 kw = 0.5135345 pf=0.92 status=variable vmaxpu=1.5 vminpu=0.5 daily="LS_BT_U52543404_M1"  
New "Load.BT_U52543404_M2" bus1="3861012038459225.1.4" phases=1 conn=Wye model=3 kv=0.219393102 kw = 0.5135345 pf=0.92 status=variable vmaxpu=1.5 vminpu=0.5 daily="LS_BT_U52543404_M2" 
New "Load.BT_U53514934_M1" bus1="3857309238469135.1.4" phases=1 conn=Wye model=2 kv=0.219393102 kw = 0.240966 pf=0.92 status=variable vmaxpu=1.5 vminpu=0.5 daily="LS_BT_U53514934_M1"  
New "Load.BT_U53514934_M2" bus1="3857309238469135.1.4" phases=1 conn=Wye model=3 kv=0.219393102 kw = 0.240966 pf=0.92 status=variable vmaxpu=1.5 vminpu=0.5 daily="LS_BT_U53514934_M2" 
New "Load.BT_UC9772167_M1" bus1="3860554638465575.3.4" phases=1 conn=Wye model=2 kv=0.219393102 kw = 0.432554 pf=0.92 status=variable vmaxpu=1.5 vminpu=0.5 daily="LS_BT_UC9772167_M1"  
New "Load.BT_UC9772167_M2" bus1="3860554638465575.3.4" phases=1 conn=Wye model=3 kv=0.219393102 kw = 0.432554 pf=0.92 status=variable vmaxpu=1.5 vminpu=0.5 daily="LS_BT_UC9772167_M2" 
New "Load.BT_VC5353540_1_M1" bus1="3873369138464025.1.4" phases=1 conn=Wye model=2 kv=0.219393102 kw = 0.249509 pf=0.92 status=variable vmaxpu=1.5 vminpu=0.5 daily="LS_BT_VC5353540_1_M1"  
New "Load.BT_VC5353540_1_M2" bus1="3873369138464025.1.4" phases=1 conn=Wye model=3 kv=0.219393102 kw = 0.249509 pf=0.92 status=variable vmaxpu=1.5 vminpu=0.5 daily="LS_BT_VC5353540_1_M2" 
New "Load.BT_U52859311_M1" bus1="3871486638467296.1.4" phases=1 conn=Wye model=2 kv=0.219393102 kw = 0.3638755 pf=0.92 status=variable vmaxpu=1.5 vminpu=0.5 daily="LS_BT_U52859311_M1"  
New "Load.BT_U52859311_M2" bus1="3871486638467296.1.4" phases=1 conn=Wye model=3 kv=0.219393102 kw = 0.3638755 pf=0.92 status=variable vmaxpu=1.5 vminpu=0.5 daily="LS_BT_U52859311_M2" 
New "Load.BT_UC0992586_1_M1" bus1="3882173138456871.3.4" phases=1 conn=Wye model=2 kv=0.219393102 kw = 0.142688 pf=0.92 status=variable vmaxpu=1.5 vminpu=0.5 daily="LS_BT_UC0992586_1_M1"  
New "Load.BT_UC0992586_1_M2" bus1="3882173138456871.3.4" phases=1 conn=Wye model=3 kv=0.219393102 kw = 0.142688 pf=0.92 status=variable vmaxpu=1.5 vminpu=0.5 daily="LS_BT_UC0992586_1_M2" 
New "Load.BT_UC3869200_M1" bus1="3863324038458164.3.4" phases=1 conn=Wye model=2 kv=0.219393102 kw = 0.201674 pf=0.92 status=variable vmaxpu=1.5 vminpu=0.5 daily="LS_BT_UC3869200_M1"  
New "Load.BT_UC3869200_M2" bus1="3863324038458164.3.4" phases=1 conn=Wye model=3 kv=0.219393102 kw = 0.201674 pf=0.92 status=variable vmaxpu=1.5 vminpu=0.5 daily="LS_BT_UC3869200_M2" 
New "Load.BT_CL2792085_M1" bus1="3860092338463420.1.2.3.4" phases=3 conn=Delta model=2 kv=0.380000000 kw = 2.7273025 pf=0.92 status=variable vmaxpu=1.5 vminpu=0.5 daily="LS_BT_CL2792085_M1"  
New "Load.BT_CL2792085_M2" bus1="3860092338463420.1.2.3.4" phases=3 conn=Delta model=3 kv=0.380000000 kw = 2.7273025 pf=0.92 status=variable vmaxpu=1.5 vminpu=0.5 daily="LS_BT_CL2792085_M2" 

New "Load.BT_U10428816_M1" bus1="3871672838465577.1.2.3.4" phases=3 conn=Delta model=2 kv=0.380000000 kw = 1.872015 pf=0.92 status=variable vmaxpu=1.5 vminpu=0.5 daily="LS_BT_U10428816_M1"  
New "Load.BT_U10428816_M2" bus1="3871672838465577.1.2.3.4" phases=3 conn=Delta model=3 kv=0.380000000 kw = 1.872015 pf=0.92 status=variable vmaxpu=1.5 vminpu=0.5 daily="LS_BT_U10428816_M2" 
New "Load.BT_UC5353539_M1" bus1="3872698438464494.1.2.3.4" phases=3 conn=Delta model=2 kv=0.380000000 kw = 0.389554 pf=0.92 status=variable vmaxpu=1.5 vminpu=0.5 daily="LS_BT_UC5353539_M1"  
New "Load.BT_UC5353539_M2" bus1="3872698438464494.1.2.3.4" phases=3 conn=Delta model=3 kv=0.380000000 kw = 0.389554 pf=0.92 status=variable vmaxpu=1.5 vminpu=0.5 daily="LS_BT_UC5353539_M2" 
New "Load.BT_UC0469997_M1" bus1="3859109938471550.2.4" phases=1 conn=Wye model=2 kv=0.219393102 kw = 0.1192965 pf=0.92 status=variable vmaxpu=1.5 vminpu=0.5 daily="LS_BT_UC0469997_M1"  
New "Load.BT_UC0469997_M2" bus1="3859109938471550.2.4" phases=1 conn=Wye model=3 kv=0.219393102 kw = 0.1192965 pf=0.92 status=variable vmaxpu=1.5 vminpu=0.5 daily="LS_BT_UC0469997_M2" 
New "Load.BT_U38301976_M1" bus1="3860469238459126.1.2.3.4" phases=3 conn=Delta model=2 kv=0.380000000 kw = 0.031299 pf=0.92 status=variable vmaxpu=1.5 vminpu=0.5 daily="LS_BT_U38301976_M1"  
New "Load.BT_U38301976_M2" bus1="3860469238459126.1.2.3.4" phases=3 conn=Delta model=3 kv=0.380000000 kw = 0.031299 pf=0.92 status=variable vmaxpu=1.5 vminpu=0.5 daily="LS_BT_U38301976_M2" 
New "Load.BT_CL5882729_M1" bus1="3860092338463420.2.4" phases=1 conn=Wye model=2 kv=0.219393102 kw = 0.4676365 pf=0.92 status=variable vmaxpu=1.5 vminpu=0.5 daily="LS_BT_CL5882729_M1"  
New "Load.BT_CL5882729_M2" bus1="3860092338463420.2.4" phases=1 conn=Wye model=3 kv=0.219393102 kw = 0.4676365 pf=0.92 status=variable vmaxpu=1.5 vminpu=0.5 daily="LS_BT_CL5882729_M2" 
New "Load.BT_UC0469999_M1" bus1="3860531538472015.1.2.3.4" phases=3 conn=Delta model=2 kv=0.380000000 kw = 0.1996875 pf=0.92 status=variable vmaxpu=1.5 vminpu=0.5 daily="LS_BT_UC0469999_M1"  
New "Load.BT_UC0469999_M2" bus1="3860531538472015.1.2.3.4" phases=3 conn=Delta model=3 kv=0.380000000 kw = 0.1996875 pf=0.92 status=variable vmaxpu=1.5 vminpu=0.5 daily="LS_BT_UC0469999_M2" 
New "Load.BT_UC5353517_M1" bus1="3873369138464009.1.4" phases=1 conn=Wye model=2 kv=0.219393102 kw = 0.265137 pf=0.92 status=variable vmaxpu=1.5 vminpu=0.5 daily="LS_BT_UC5353517_M1"  
New "Load.BT_UC5353517_M2" bus1="3873369138464009.1.4" phases=1 conn=Wye model=3 kv=0.219393102 kw = 0.265137 pf=0.92 status=variable vmaxpu=1.5 vminpu=0.5 daily="LS_BT_UC5353517_M2" 
New "Load.BT_UC5518906_2_M1" bus1="3860552038463720.2.4" phases=1 conn=Wye model=2 kv=0.219393102 kw = 0.386122 pf=0.92 status=variable vmaxpu=1.5 vminpu=0.5 daily="LS_BT_UC5518906_2_M1"  
New "Load.BT_UC5518906_2_M2" bus1="3860552038463720.2.4" phases=1 conn=Wye model=3 kv=0.219393102 kw = 0.386122 pf=0.92 status=variable vmaxpu=1.5 vminpu=0.5 daily="LS_BT_UC5518906_2_M2" 
New "Load.BT_UC8124667_M1" bus1="207822372.3.4" phases=1 conn=Wye model=2 kv=0.219393102 kw = 0.145027 pf=0.92 status=variable vmaxpu=1.5 vminpu=0.5 daily="LS_BT_UC8124667_M1"  
New "Load.BT_UC8124667_M2" bus1="207822372.3.4" phases=1 conn=Wye model=3 kv=0.219393102 kw = 0.145027 pf=0.92 status=variable vmaxpu=1.5 vminpu=0.5 daily="LS_BT_UC8124667_M2" 
New "Load.BT_U50898039_M1" bus1="3859408038469133.2.4" phases=1 conn=Wye model=2 kv=0.219393102 kw = 0.4599145 pf=0.92 status=variable vmaxpu=1.5 vminpu=0.5 daily="LS_BT_U50898039_M1"  
New "Load.BT_U50898039_M2" bus1="3859408038469133.2.4" phases=1 conn=Wye model=3 kv=0.219393102 kw = 0.4599145 pf=0.92 status=variable vmaxpu=1.5 vminpu=0.5 daily="LS_BT_U50898039_M2" 
New "Load.BT_UC3867803_M1" bus1="3863758038458020.1.2.3.4" phases=3 conn=Delta model=2 kv=0.380000000 kw = 0.157734 pf=0.92 status=variable vmaxpu=1.5 vminpu=0.5 daily="LS_BT_UC3867803_M1"  
New "Load.BT_UC3867803_M2" bus1="3863758038458020.1.2.3.4" phases=3 conn=Delta model=3 kv=0.380000000 kw = 0.157734 pf=0.92 status=variable vmaxpu=1.5 vminpu=0.5 daily="LS_BT_UC3867803_M2" 
New "Load.BT_UC8363745_M1" bus1="3858547838474254.3.4" phases=1 conn=Wye model=2 kv=0.219393102 kw = 0.232531 pf=0.92 status=variable vmaxpu=1.5 vminpu=0.5 daily="LS_BT_UC8363745_M1"  
New "Load.BT_UC8363745_M2" bus1="3858547838474254.3.4" phases=1 conn=Wye model=3 kv=0.219393102 kw = 0.232531 pf=0.92 status=variable vmaxpu=1.5 vminpu=0.5 daily="LS_BT_UC8363745_M2" 
New "Load.BT_UC3182805_M1" bus1="3858807938464405.1.4" phases=1 conn=Wye model=2 kv=0.219393102 kw = 0.318336 pf=0.92 status=variable vmaxpu=1.5 vminpu=0.5 daily="LS_BT_UC3182805_M1"  
New "Load.BT_UC3182805_M2" bus1="3858807938464405.1.4" phases=1 conn=Wye model=3 kv=0.219393102 kw = 0.318336 pf=0.92 status=variable vmaxpu=1.5 vminpu=0.5 daily="LS_BT_UC3182805_M2" 
New "Load.BT_CL6650949_M1" bus1="3856292538463731.1.2.3.4" phases=3 conn=Delta model=2 kv=0.380000000 kw = 0.87521 pf=0.92 status=variable vmaxpu=1.5 vminpu=0.5 daily="LS_BT_CL6650949_M1"  
New "Load.BT_CL6650949_M2" bus1="3856292538463731.1.2.3.4" phases=3 conn=Delta model=3 kv=0.380000000 kw = 0.87521 pf=0.92 status=variable vmaxpu=1.5 vminpu=0.5 daily="LS_BT_CL6650949_M2" 
New "Load.BT_UC1194089_M1" bus1="3876438338462903.1.2.3.4" phases=3 conn=Delta model=2 kv=0.380000000 kw = 0.059254 pf=0.92 status=variable vmaxpu=1.5 vminpu=0.5 daily="LS_BT_UC1194089_M1"  
New "Load.BT_UC1194089_M2" bus1="3876438338462903.1.2.3.4" phases=3 conn=Delta model=3 kv=0.380000000 kw = 0.059254 pf=0.92 status=variable vmaxpu=1.5 vminpu=0.5 daily="LS_BT_UC1194089_M2" 
New "Load.BT_U10449987_M1" bus1="3865251338468040.1.4" phases=1 conn=Wye model=2 kv=0.219393102 kw = 1.6215435 pf=0.92 status=variable vmaxpu=1.5 vminpu=0.5 daily="LS_BT_U10449987_M1"  
New "Load.BT_U10449987_M2" bus1="3865251338468040.1.4" phases=1 conn=Wye model=3 kv=0.219393102 kw = 1.6215435 pf=0.92 status=variable vmaxpu=1.5 vminpu=0.5 daily="LS_BT_U10449987_M2" 
New "Load.BT_UC3588572_M1" bus1="3859297038459403.1.2.3.4" phases=3 conn=Delta model=2 kv=0.380000000 kw = 0.700168 pf=0.92 status=variable vmaxpu=1.5 vminpu=0.5 daily="LS_BT_UC3588572_M1"  
New "Load.BT_UC3588572_M2" bus1="3859297038459403.1.2.3.4" phases=3 conn=Delta model=3 kv=0.380000000 kw = 0.700168 pf=0.92 status=variable vmaxpu=1.5 vminpu=0.5 daily="LS_BT_UC3588572_M2" 
New "Load.BT_UC2311848_M1" bus1="3863036638457270.1.2.3.4" phases=3 conn=Delta model=2 kv=0.380000000 kw = 0.2531245 pf=0.92 status=variable vmaxpu=1.5 vminpu=0.5 daily="LS_BT_UC2311848_M1"  
New "Load.BT_UC2311848_M2" bus1="3863036638457270.1.2.3.4" phases=3 conn=Delta model=3 kv=0.380000000 kw = 0.2531245 pf=0.92 status=variable vmaxpu=1.5 vminpu=0.5 daily="LS_BT_UC2311848_M2" 
New "Load.BT_U10428806_M1" bus1="3871763338465667.1.2.3.4" phases=3 conn=Delta model=2 kv=0.380000000 kw = 0.0 pf=0.92 status=variable vmaxpu=1.5 vminpu=0.5 daily="LS_BT_U10428806_M1"  
New "Load.BT_U10428806_M2" bus1="3871763338465667.1.2.3.4" phases=3 conn=Delta model=3 kv=0.380000000 kw = 0.0 pf=0.92 status=variable vmaxpu=1.5 vminpu=0.5 daily="LS_BT_U10428806_M2" 
New "Load.BT_UC6592852_1_M1" bus1="3860898838466268.1.4" phases=1 conn=Wye model=2 kv=0.219393102 kw = 0.0363475 pf=0.92 status=variable vmaxpu=1.5 vminpu=0.5 daily="LS_BT_UC6592852_1_M1"  
New "Load.BT_UC6592852_1_M2" bus1="3860898838466268.1.4" phases=1 conn=Wye model=3 kv=0.219393102 kw = 0.0363475 pf=0.92 status=variable vmaxpu=1.5 vminpu=0.5 daily="LS_BT_UC6592852_1_M2" 
New "Load.BT_UC3959057_M1" bus1="3856587238462608.1.2.3.4" phases=3 conn=Delta model=2 kv=0.380000000 kw = 0.8460365 pf=0.92 status=variable vmaxpu=1.5 vminpu=0.5 daily="LS_BT_UC3959057_M1"  
New "Load.BT_UC3959057_M2" bus1="3856587238462608.1.2.3.4" phases=3 conn=Delta model=3 kv=0.380000000 kw = 0.8460365 pf=0.92 status=variable vmaxpu=1.5 vminpu=0.5 daily="LS_BT_UC3959057_M2" 
New "Load.BT_U51188536_M1" bus1="3862935038467411.1.4" phases=1 conn=Wye model=2 kv=0.219393102 kw = 0.2351055 pf=0.92 status=variable vmaxpu=1.5 vminpu=0.5 daily="LS_BT_U51188536_M1"  
New "Load.BT_U51188536_M2" bus1="3862935038467411.1.4" phases=1 conn=Wye model=3 kv=0.219393102 kw = 0.2351055 pf=0.92 status=variable vmaxpu=1.5 vminpu=0.5 daily="LS_BT_U51188536_M2" 
New "Load.BT_UI3322327_M1" bus1="3859494538460040.1.2.3.4" phases=3 conn=Delta model=2 kv=0.380000000 kw = 1.312426 pf=0.92 status=variable vmaxpu=1.5 vminpu=0.5 daily="LS_BT_UI3322327_M1"  
New "Load.BT_UI3322327_M2" bus1="3859494538460040.1.2.3.4" phases=3 conn=Delta model=3 kv=0.380000000 kw = 1.312426 pf=0.92 status=variable vmaxpu=1.5 vminpu=0.5 daily="LS_BT_UI3322327_M2" 
New "Load.BT_UC0988028_5_M1" bus1="3877073338462431.1.2.3.4" phases=3 conn=Delta model=2 kv=0.380000000 kw = 0.116347 pf=0.92 status=variable vmaxpu=1.5 vminpu=0.5 daily="LS_BT_UC0988028_5_M1"  
New "Load.BT_UC0988028_5_M2" bus1="3877073338462431.1.2.3.4" phases=3 conn=Delta model=3 kv=0.380000000 kw = 0.116347 pf=0.92 status=variable vmaxpu=1.5 vminpu=0.5 daily="LS_BT_UC0988028_5_M2" 
New "Load.BT_UC5603275_1_M1" bus1="3858547238467080.1.2.3.4" phases=3 conn=Delta model=2 kv=0.380000000 kw = 0.3114715 pf=0.92 status=variable vmaxpu=1.5 vminpu=0.5 daily="LS_BT_UC5603275_1_M1"  
New "Load.BT_UC5603275_1_M2" bus1="3858547238467080.1.2.3.4" phases=3 conn=Delta model=3 kv=0.380000000 kw = 0.3114715 pf=0.92 status=variable vmaxpu=1.5 vminpu=0.5 daily="LS_BT_UC5603275_1_M2" 
New "Load.BT_UC3648203_M1" bus1="3881546938455584.1.4" phases=1 conn=Wye model=2 kv=0.219393102 kw = 0.0833405 pf=0.92 status=variable vmaxpu=1.5 vminpu=0.5 daily="LS_BT_UC3648203_M1"  
New "Load.BT_UC3648203_M2" bus1="3881546938455584.1.4" phases=1 conn=Wye model=3 kv=0.219393102 kw = 0.0833405 pf=0.92 status=variable vmaxpu=1.5 vminpu=0.5 daily="LS_BT_UC3648203_M2" 
New "Load.BT_U56026107_M1" bus1="3881871038455717.1.4" phases=1 conn=Wye model=2 kv=0.219393102 kw = 0.3252005 pf=0.92 status=variable vmaxpu=1.5 vminpu=0.5 daily="LS_BT_U56026107_M1"  
New "Load.BT_U56026107_M2" bus1="3881871038455717.1.4" phases=1 conn=Wye model=3 kv=0.219393102 kw = 0.3252005 pf=0.92 status=variable vmaxpu=1.5 vminpu=0.5 daily="LS_BT_U56026107_M2" 
New "Load.BT_CL3060057_M1" bus1="1051627TR.1.2.3.4" phases=3 conn=Delta model=2 kv=0.380000000 kw = 0.1768875 pf=0.92 status=variable vmaxpu=1.5 vminpu=0.5 daily="LS_BT_CL3060057_M1"  
New "Load.BT_CL3060057_M2" bus1="1051627TR.1.2.3.4" phases=3 conn=Delta model=3 kv=0.380000000 kw = 0.1768875 pf=0.92 status=variable vmaxpu=1.5 vminpu=0.5 daily="LS_BT_CL3060057_M2" 
New "Load.BT_VC2457205_1_M1" bus1="3881745238457043.3.4" phases=1 conn=Wye model=2 kv=0.219393102 kw = 0.3244815 pf=0.92 status=variable vmaxpu=1.5 vminpu=0.5 daily="LS_BT_VC2457205_1_M1"  
New "Load.BT_VC2457205_1_M2" bus1="3881745238457043.3.4" phases=1 conn=Wye model=3 kv=0.219393102 kw = 0.3244815 pf=0.92 status=variable vmaxpu=1.5 vminpu=0.5 daily="LS_BT_VC2457205_1_M2" 
New "Load.BT_UC0971896_M1" bus1="3862826638460201.3.4" phases=1 conn=Wye model=2 kv=0.219393102 kw = 0.1104135 pf=0.92 status=variable vmaxpu=1.5 vminpu=0.5 daily="LS_BT_UC0971896_M1"  
New "Load.BT_UC0971896_M2" bus1="3862826638460201.3.4" phases=1 conn=Wye model=3 kv=0.219393102 kw = 0.1104135 pf=0.92 status=variable vmaxpu=1.5 vminpu=0.5 daily="LS_BT_UC0971896_M2" 
New "Load.BT_UC1121844_M1" bus1="3863143338459198.1.4" phases=1 conn=Wye model=2 kv=0.219393102 kw = 0.1988275 pf=0.92 status=variable vmaxpu=1.5 vminpu=0.5 daily="LS_BT_UC1121844_M1"  
New "Load.BT_UC1121844_M2" bus1="3863143338459198.1.4" phases=1 conn=Wye model=3 kv=0.219393102 kw = 0.1988275 pf=0.92 status=variable vmaxpu=1.5 vminpu=0.5 daily="LS_BT_UC1121844_M2" 
New "Load.BT_UC3677803_M1" bus1="3859408038469133.1.2.3.4" phases=3 conn=Delta model=2 kv=0.380000000 kw = 4.8565595 pf=0.92 status=variable vmaxpu=1.5 vminpu=0.5 daily="LS_BT_UC3677803_M1"  
New "Load.BT_UC3677803_M2" bus1="3859408038469133.1.2.3.4" phases=3 conn=Delta model=3 kv=0.380000000 kw = 4.8565595 pf=0.92 status=variable vmaxpu=1.5 vminpu=0.5 daily="LS_BT_UC3677803_M2" 
New "Load.BT_U53034048_M1" bus1="3860390438463305.1.4" phases=1 conn=Wye model=2 kv=0.219393102 kw = 0.166859 pf=0.92 status=variable vmaxpu=1.5 vminpu=0.5 daily="LS_BT_U53034048_M1"  
New "Load.BT_U53034048_M2" bus1="3860390438463305.1.4" phases=1 conn=Wye model=3 kv=0.219393102 kw = 0.166859 pf=0.92 status=variable vmaxpu=1.5 vminpu=0.5 daily="LS_BT_U53034048_M2" 
New "Load.BT_UC4668850_M1" bus1="3860369038476128.1.2.3.4" phases=3 conn=Delta model=2 kv=0.380000000 kw = 1.517889 pf=0.92 status=variable vmaxpu=1.5 vminpu=0.5 daily="LS_BT_UC4668850_M1"  
New "Load.BT_UC4668850_M2" bus1="3860369038476128.1.2.3.4" phases=3 conn=Delta model=3 kv=0.380000000 kw = 1.517889 pf=0.92 status=variable vmaxpu=1.5 vminpu=0.5 daily="LS_BT_UC4668850_M2" 
New "Load.BT_UC2247318_M1" bus1="3863048238460377.1.2.3.4" phases=3 conn=Delta model=2 kv=0.380000000 kw = 0.3629545 pf=0.92 status=variable vmaxpu=1.5 vminpu=0.5 daily="LS_BT_UC2247318_M1"  
New "Load.BT_UC2247318_M2" bus1="3863048238460377.1.2.3.4" phases=3 conn=Delta model=3 kv=0.380000000 kw = 0.3629545 pf=0.92 status=variable vmaxpu=1.5 vminpu=0.5 daily="LS_BT_UC2247318_M2" 
New "Load.BT_U10428783_M1" bus1="3871971538465874.1.2.3.4" phases=3 conn=Delta model=2 kv=0.380000000 kw = 0.3884615 pf=0.92 status=variable vmaxpu=1.5 vminpu=0.5 daily="LS_BT_U10428783_M1"  
New "Load.BT_U10428783_M2" bus1="3871971538465874.1.2.3.4" phases=3 conn=Delta model=3 kv=0.380000000 kw = 0.3884615 pf=0.92 status=variable vmaxpu=1.5 vminpu=0.5 daily="LS_BT_U10428783_M2" 
New "Load.BT_U10453697_7_M1" bus1="271134053.1.2.3.4" phases=3 conn=Delta model=2 kv=0.380000000 kw = 0.1683315 pf=0.92 status=variable vmaxpu=1.5 vminpu=0.5 daily="LS_BT_U10453697_7_M1"  
New "Load.BT_U10453697_7_M2" bus1="271134053.1.2.3.4" phases=3 conn=Delta model=3 kv=0.380000000 kw = 0.1683315 pf=0.92 status=variable vmaxpu=1.5 vminpu=0.5 daily="LS_BT_U10453697_7_M2" 
New "Load.BT_UI2995403_M1" bus1="3881548338455273.1.4" phases=1 conn=Wye model=2 kv=0.219393102 kw = 0.1411285 pf=0.92 status=variable vmaxpu=1.5 vminpu=0.5 daily="LS_BT_UI2995403_M1"  
...